160
16.414 0.0 0.0 0.0 16.51 0.0 0.0 0.0 23.518
Cs       4.18557000       3.88810500       2.93975000
Cs       8.12493000       8.01560500       2.93975000
Cs       4.02143000       4.36689500       8.81925000
Cs       0.08207000       0.23939500       8.81925000
Pb       0.00000000       4.12750000       0.00000000
Pb       4.10350000       0.00000000       5.87950000
Pb       0.00000000       4.12750000       5.87950000
Pb       4.10350000       0.00000000       0.00000000
Br       3.72597800       0.04127500       2.93975000
Br       0.37752200       4.16877500       2.93975000
Br       4.48102200       8.21372500       8.81925000
Br       7.82947800       4.08622500       8.81925000
Br       5.80234900       5.81977500       0.29397500
Br       6.50815100       1.69227500       5.58552500
Br       2.40465100       2.43522500       6.17347500
Br       1.69884900       6.56272500      11.46502500
Br       2.40465100       2.43522500      11.46502500
Br       1.69884900       6.56272500       6.17347500
Br       5.80234900       5.81977500       5.58552500
Br       6.50815100       1.69227500       0.29397500
Cs       4.18557000       3.88810500      14.69875000
Cs       8.12493000       8.01560500      14.69875000
Cs       4.02143000       4.36689500      20.57825000
Cs       0.08207000       0.23939500      20.57825000
Pb       0.00000000       4.12750000      11.75900000
Pb       4.10350000       0.00000000      17.63850000
Pb       0.00000000       4.12750000      17.63850000
Pb       4.10350000       0.00000000      11.75900000
Br       3.72597800       0.04127500      14.69875000
Br       0.37752200       4.16877500      14.69875000
Br       4.48102200       8.21372500      20.57825000
Br       7.82947800       4.08622500      20.57825000
Br       5.80234900       5.81977500      12.05297500
Br       6.50815100       1.69227500      17.34452500
Br       2.40465100       2.43522500      17.93247500
Br       1.69884900       6.56272500      23.22402500
Br       2.40465100       2.43522500      23.22402500
Br       1.69884900       6.56272500      17.93247500
Br       5.80234900       5.81977500      17.34452500
Br       6.50815100       1.69227500      12.05297500
Cs       4.18557000      12.14310500       2.93975000
Cs       8.12493000      16.27060500       2.93975000
Cs       4.02143000      12.62189500       8.81925000
Cs       0.08207000       8.49439500       8.81925000
Pb       0.00000000      12.38250000       0.00000000
Pb       4.10350000       8.25500000       5.87950000
Pb       0.00000000      12.38250000       5.87950000
Pb       4.10350000       8.25500000       0.00000000
Br       3.72597800       8.29627500       2.93975000
Br       0.37752200      12.42377500       2.93975000
Br       4.48102200      16.46872500       8.81925000
Br       7.82947800      12.34122500       8.81925000
Br       5.80234900      14.07477500       0.29397500
Br       6.50815100       9.94727500       5.58552500
Br       2.40465100      10.69022500       6.17347500
Br       1.69884900      14.81772500      11.46502500
Br       2.40465100      10.69022500      11.46502500
Br       1.69884900      14.81772500       6.17347500
Br       5.80234900      14.07477500       5.58552500
Br       6.50815100       9.94727500       0.29397500
Cs       4.18557000      12.14310500      14.69875000
Cs       8.12493000      16.27060500      14.69875000
Cs       4.02143000      12.62189500      20.57825000
Cs       0.08207000       8.49439500      20.57825000
Pb       0.00000000      12.38250000      11.75900000
Pb       4.10350000       8.25500000      17.63850000
Pb       0.00000000      12.38250000      17.63850000
Pb       4.10350000       8.25500000      11.75900000
Br       3.72597800       8.29627500      14.69875000
Br       0.37752200      12.42377500      14.69875000
Br       4.48102200      16.46872500      20.57825000
Br       7.82947800      12.34122500      20.57825000
Br       5.80234900      14.07477500      12.05297500
Br       6.50815100       9.94727500      17.34452500
Br       2.40465100      10.69022500      17.93247500
Br       1.69884900      14.81772500      23.22402500
Br       2.40465100      10.69022500      23.22402500
Br       1.69884900      14.81772500      17.93247500
Br       5.80234900      14.07477500      17.34452500
Br       6.50815100       9.94727500      12.05297500
Cs      12.39257000       3.88810500       2.93975000
Cs      16.33193000       8.01560500       2.93975000
Cs      12.22843000       4.36689500       8.81925000
Cs       8.28907000       0.23939500       8.81925000
Pb       8.20700000       4.12750000       0.00000000
Pb      12.31050000       0.00000000       5.87950000
Pb       8.20700000       4.12750000       5.87950000
Pb      12.31050000       0.00000000       0.00000000
Br      11.93297800       0.04127500       2.93975000
Br       8.58452200       4.16877500       2.93975000
Br      12.68802200       8.21372500       8.81925000
Br      16.03647800       4.08622500       8.81925000
Br      14.00934900       5.81977500       0.29397500
Br      14.71515100       1.69227500       5.58552500
Br      10.61165100       2.43522500       6.17347500
Br       9.90584900       6.56272500      11.46502500
Br      10.61165100       2.43522500      11.46502500
Br       9.90584900       6.56272500       6.17347500
Br      14.00934900       5.81977500       5.58552500
Br      14.71515100       1.69227500       0.29397500
Cs      12.39257000       3.88810500      14.69875000
Cs      16.33193000       8.01560500      14.69875000
Cs      12.22843000       4.36689500      20.57825000
Cs       8.28907000       0.23939500      20.57825000
Pb       8.20700000       4.12750000      11.75900000
Pb      12.31050000       0.00000000      17.63850000
Pb       8.20700000       4.12750000      17.63850000
Pb      12.31050000       0.00000000      11.75900000
Br      11.93297800       0.04127500      14.69875000
Br       8.58452200       4.16877500      14.69875000
Br      12.68802200       8.21372500      20.57825000
Br      16.03647800       4.08622500      20.57825000
Br      14.00934900       5.81977500      12.05297500
Br      14.71515100       1.69227500      17.34452500
Br      10.61165100       2.43522500      17.93247500
Br       9.90584900       6.56272500      23.22402500
Br      10.61165100       2.43522500      23.22402500
Br       9.90584900       6.56272500      17.93247500
Br      14.00934900       5.81977500      17.34452500
Br      14.71515100       1.69227500      12.05297500
Cs      12.39257000      12.14310500       2.93975000
Cs      16.33193000      16.27060500       2.93975000
Cs      12.22843000      12.62189500       8.81925000
Cs       8.28907000       8.49439500       8.81925000
Pb       8.20700000      12.38250000       0.00000000
Pb      12.31050000       8.25500000       5.87950000
Pb       8.20700000      12.38250000       5.87950000
Pb      12.31050000       8.25500000       0.00000000
Br      11.93297800       8.29627500       2.93975000
Br       8.58452200      12.42377500       2.93975000
Br      12.68802200      16.46872500       8.81925000
Br      16.03647800      12.34122500       8.81925000
Br      14.00934900      14.07477500       0.29397500
Br      14.71515100       9.94727500       5.58552500
Br      10.61165100      10.69022500       6.17347500
Br       9.90584900      14.81772500      11.46502500
Br      10.61165100      10.69022500      11.46502500
Br       9.90584900      14.81772500       6.17347500
Br      14.00934900      14.07477500       5.58552500
Br      14.71515100       9.94727500       0.29397500
Cs      12.39257000      12.14310500      14.69875000
Cs      16.33193000      16.27060500      14.69875000
Cs      12.22843000      12.62189500      20.57825000
Cs       8.28907000       8.49439500      20.57825000
Pb       8.20700000      12.38250000      11.75900000
Pb      12.31050000       8.25500000      17.63850000
Pb       8.20700000      12.38250000      17.63850000
Pb      12.31050000       8.25500000      11.75900000
Br      11.93297800       8.29627500      14.69875000
Br       8.58452200      12.42377500      14.69875000
Br      12.68802200      16.46872500      20.57825000
Br      16.03647800      12.34122500      20.57825000
Br      14.00934900      14.07477500      12.05297500
Br      14.71515100       9.94727500      17.34452500
Br      10.61165100      10.69022500      17.93247500
Br       9.90584900      14.81772500      23.22402500
Br      10.61165100      10.69022500      23.22402500
Br       9.90584900      14.81772500      17.93247500
Br      14.00934900      14.07477500      17.34452500
Br      14.71515100       9.94727500      12.05297500
